performance/linearized_pglib_scopf_baseline/pglib_opf_case57_ieee.json
{"elements": {"bus": {"1": {"matpower_bustype": "ref", "area": 1.0, "vm": 1.0, "va": -0.0, "base_kv": 1.0, "zone": 1.0, "v_min": 0.94, "v_max": 1.06, "lmp": 37.37343663352779, "pl": 55.00000000000001}, "2": {"matpower_bustype": "PV", "area": 1.0, "vm": 1.0, "va": 0.579797286122558, "base_kv": 1.0, "zone": 1.0, "v_min": 0.94, "v_max": 1.06, "lmp": 37.42219023664122, "pl": 3.0}, "3": {"matpower_bustype": "PV", "area": 1.0, "vm": 1.0, "va": 2.193791952664821, "base_kv": 1.0, "zone": 1.0, "v_min": 0.94, "v_max": 1.06, "lmp": 37.57019224609271, "pl": 41.0}, "4": {"matpower_bustype": "PQ", "area": 1.0, "vm": 1.0, "va": 2.4481075287863465, "base_kv": 1.0, "zone": 1.0, "v_min": 0.94, "v_max": 1.06, "lmp": 37.79847705806657, "pl": 0.0}, "5": {"matpower_bustype": "PQ", "area": 1.0, "vm": 1.0, "va": 2.001245964304907, "base_kv": 1.0, "zone": 1.0, "v_min": 0.94, "v_max": 1.06, "lmp": 38.17494105303788, "pl": 13.0}, "6": {"matpower_bustype": "PV", "area": 1.0, "vm": 1.0, "va": 1.3068015496582988, "base_kv": 1.0, "zone": 1.0, "v_min": 0.94, "v_max": 1.06, "lmp": 38.35775425059591, "pl": 75.0}, "7": {"matpower_bustype": "PQ", "area": 1.0, "vm": 1.0, "va": -0.9926155673882251, "base_kv": 1.0, "zone": 1.0, "v_min": 0.94, "v_max": 1.06, "lmp": 33.97352265680816, "pl": 0.0}, "8": {"matpower_bustype": "PV", "area": 1.0, "vm": 1.0, "va": -5.435669772401237, "base_kv": 1.0, "zone": 1.0, "v_min": 0.94, "v_max": 1.06, "lmp": 30.441036999999998, "pl": 150.0}, "9": {"matpower_bustype": "PV", "area": 1.0, "vm": 1.0, "va": 1.7440755329419237, "base_kv": 1.0, "zone": 1.0, "v_min": 0.94, "v_max": 1.06, "lmp": 37.022513415563424, "pl": 121.0}, "10": {"matpower_bustype": "PQ", "area": 1.0, "vm": 1.0, "va": 4.670868863237729, "base_kv": 1.0, "zone": 1.0, "v_min": 0.94, "v_max": 1.06, "lmp": 37.11123779596237, "pl": 5.0}, "11": {"matpower_bustype": "PQ", "area": 1.0, "vm": 1.0, "va": 3.6580483813590265, "base_kv": 1.0, "zone": 1.0, "v_min": 0.94, "v_max": 1.06, "lmp": 37.10428937570835, "pl": 0.0}, "12": {"matpower_bustype": "PV", "area": 1.0, "vm": 1.0, "va": 4.122667692904733, "base_kv": 1.0, "zone": 1.0, "v_min": 0.94, "v_max": 1.06, "lmp": 37.188979, "pl": 377.0}, "13": {"matpower_bustype": "PQ", "area": 1.0, "vm": 1.0, "va": 4.245505509291056, "base_kv": 1.0, "zone": 1.0, "v_min": 0.94, "v_max": 1.06, "lmp": 37.182921367938064, "pl": 18.0}, "14": {"matpower_bustype": "PQ", "area": 1.0, "vm": 1.0, "va": 4.548560342776935, "base_kv": 1.0, "zone": 1.0, "v_min": 0.94, "v_max": 1.06, "lmp": 37.222076627203535, "pl": 10.5}, "15": {"matpower_bustype": "PQ", "area": 1.0, "vm": 1.0, "va": 3.408862407916432, "base_kv": 1.0, "zone": 1.0, "v_min": 0.94, "v_max": 1.06, "lmp": 37.33189948492002, "pl": 22.0}, "16": {"matpower_bustype": "PQ", "area": 1.0, "vm": 1.0, "va": 4.392231795593216, "base_kv": 1.0, "zone": 1.0, "v_min": 0.94, "v_max": 1.06, "lmp": 37.24117672226178, "pl": 43.0}, "17": {"matpower_bustype": "PQ", "area": 1.0, "vm": 1.0, "va": 3.1723266719282655, "base_kv": 1.0, "zone": 1.0, "v_min": 0.94, "v_max": 1.06, "lmp": 37.30402400488319, "pl": 42.0}, "18": {"matpower_bustype": "PQ", "area": 1.0, "vm": 1.0, "va": 6.708686927523306, "base_kv": 1.0, "zone": 1.0, "v_min": 0.94, "v_max": 1.06, "lmp": 37.705544193275145, "pl": 27.200000000000003}, "19": {"matpower_bustype": "PQ", "area": 1.0, "vm": 1.0, "va": 8.394405311041725, "base_kv": 1.0, "zone": 1.0, "v_min": 0.94, "v_max": 1.06, "lmp": 37.43592136602697, "pl": 3.3000000000000003}, "20": {"matpower_bustype": "PQ", "area": 1.0, "vm": 1.0, "va": 8.641846950208635, "base_kv": 1.0, "zone": 1.0, "v_min": 0.94, "v_max": 1.06, "lmp": 37.26509464044199, "pl": 2.3}, "21": {"matpower_bustype": "PQ", "area": 1.0, "vm": 1.0, "va": 8.036168273186785, "base_kv": 1.0, "zone": 1.0, "v_min": 0.94, "v_max": 1.06, "lmp": 36.94623195420785, "pl": 0.0}, "22": {"matpower_bustype": "PQ", "area": 1.0, "vm": 1.0, "va": 7.948691947527515, "base_kv": 1.0, "zone": 1.0, "v_min": 0.94, "v_max": 1.06, "lmp": 36.900179588093934, "pl": 0.0}, "23": {"matpower_bustype": "PQ", "area": 1.0, "vm": 1.0, "va": 7.965559237818501, "base_kv": 1.0, "zone": 1.0, "v_min": 0.94, "v_max": 1.06, "lmp": 36.85067128607015, "pl": 6.3}, "24": {"matpower_bustype": "PQ", "area": 1.0, "vm": 1.0, "va": 7.325573584416532, "base_kv": 1.0, "zone": 1.0, "v_min": 0.94, "v_max": 1.06, "lmp": 36.01684725198543, "pl": 0.0}, "25": {"matpower_bustype": "PQ", "area": 1.0, "vm": 1.0, "va": 12.202595699789441, "base_kv": 1.0, "zone": 1.0, "v_min": 0.94, "v_max": 1.06, "lmp": 36.19856133578783, "pl": 6.3}, "26": {"matpower_bustype": "PQ", "area": 1.0, "vm": 1.0, "va": 6.803074360588043, "base_kv": 1.0, "zone": 1.0, "v_min": 0.94, "v_max": 1.06, "lmp": 35.84128790283094, "pl": 0.0}, "27": {"matpower_bustype": "PQ", "area": 1.0, "vm": 1.0, "va": 4.112940338091611, "base_kv": 1.0, "zone": 1.0, "v_min": 0.94, "v_max": 1.06, "lmp": 34.93740487948919, "pl": 9.3}, "28": {"matpower_bustype": "PQ", "area": 1.0, "vm": 1.0, "va": 2.594211802835171, "base_kv": 1.0, "zone": 1.0, "v_min": 0.94, "v_max": 1.06, "lmp": 34.597914956549026, "pl": 4.6}, "29": {"matpower_bustype": "PQ", "area": 1.0, "vm": 1.0, "va": 1.5050220218078554, "base_kv": 1.0, "zone": 1.0, "v_min": 0.94, "v_max": 1.06, "lmp": 34.389025454698, "pl": 17.0}, "30": {"matpower_bustype": "PQ", "area": 1.0, "vm": 1.0, "va": 13.107858853471141, "base_kv": 1.0, "zone": 1.0, "v_min": 0.94, "v_max": 1.06, "lmp": 36.25945816407015, "pl": 3.6000000000000005}, "31": {"matpower_bustype": "PQ", "area": 1.0, "vm": 1.0, "va": 14.310028644540916, "base_kv": 1.0, "zone": 1.0, "v_min": 0.94, "v_max": 1.06, "lmp": 36.40928847920042, "pl": 5.8}, "32": {"matpower_bustype": "PQ", "area": 1.0, "vm": 1.0, "va": 13.62728024690183, "base_kv": 1.0, "zone": 1.0, "v_min": 0.94, "v_max": 1.06, "lmp": 36.63689791164178, "pl": 1.6}, "33": {"matpower_bustype": "PQ", "area": 1.0, "vm": 1.0, "va": 13.705660873275725, "base_kv": 1.0, "zone": 1.0, "v_min": 0.94, "v_max": 1.06, "lmp": 36.63689791164178, "pl": 3.8}, "34": {"matpower_bustype": "PQ", "area": 1.0, "vm": 1.0, "va": 9.91218343881654, "base_kv": 1.0, "zone": 1.0, "v_min": 0.94, "v_max": 1.06, "lmp": 36.917015785004295, "pl": 0.0}, "35": {"matpower_bustype": "PQ", "area": 1.0, "vm": 1.0, "va": 9.600318019459955, "base_kv": 1.0, "zone": 1.0, "v_min": 0.94, "v_max": 1.06, "lmp": 36.940530401865786, "pl": 6.0}, "36": {"matpower_bustype": "PQ", "area": 1.0, "vm": 1.0, "va": 9.201003671465617, "base_kv": 1.0, "zone": 1.0, "v_min": 0.94, "v_max": 1.06, "lmp": 36.95671931116659, "pl": 0.0}, "37": {"matpower_bustype": "PQ", "area": 1.0, "vm": 1.0, "va": 8.89359751102982, "base_kv": 1.0, "zone": 1.0, "v_min": 0.94, "v_max": 1.06, "lmp": 36.9653207390043, "pl": 0.0}, "38": {"matpower_bustype": "PQ", "area": 1.0, "vm": 1.0, "va": 7.893900091440612, "base_kv": 1.0, "zone": 1.0, "v_min": 0.94, "v_max": 1.06, "lmp": 36.98465328550149, "pl": 14.000000000000002}, "39": {"matpower_bustype": "PQ", "area": 1.0, "vm": 1.0, "va": 8.950778322639225, "base_kv": 1.0, "zone": 1.0, "v_min": 0.94, "v_max": 1.06, "lmp": 36.96696600203602, "pl": 0.0}, "40": {"matpower_bustype": "PQ", "area": 1.0, "vm": 1.0, "va": 9.245881989907746, "base_kv": 1.0, "zone": 1.0, "v_min": 0.94, "v_max": 1.06, "lmp": 36.95981624266083, "pl": 0.0}, "41": {"matpower_bustype": "PQ", "area": 1.0, "vm": 1.0, "va": 7.95496371079226, "base_kv": 1.0, "zone": 1.0, "v_min": 0.94, "v_max": 1.06, "lmp": 37.06982948440785, "pl": 6.3}, "42": {"matpower_bustype": "PQ", "area": 1.0, "vm": 1.0, "va": 9.866285968667068, "base_kv": 1.0, "zone": 1.0, "v_min": 0.94, "v_max": 1.06, "lmp": 37.05291167810131, "pl": 7.1}, "43": {"matpower_bustype": "PQ", "area": 1.0, "vm": 1.0, "va": 4.909478231956933, "base_kv": 1.0, "zone": 1.0, "v_min": 0.94, "v_max": 1.06, "lmp": 37.09524684220789, "pl": 2.0}, "44": {"matpower_bustype": "PQ", "area": 1.0, "vm": 1.0, "va": 7.283029226559393, "base_kv": 1.0, "zone": 1.0, "v_min": 0.94, "v_max": 1.06, "lmp": 37.05663454302152, "pl": 12.0}, "45": {"matpower_bustype": "PQ", "area": 1.0, "vm": 1.0, "va": 5.13216709248706, "base_kv": 1.0, "zone": 1.0, "v_min": 0.94, "v_max": 1.06, "lmp": 37.20945628975634, "pl": 0.0}, "46": {"matpower_bustype": "PQ", "area": 1.0, "vm": 1.0, "va": 5.99077599456012, "base_kv": 1.0, "zone": 1.0, "v_min": 0.94, "v_max": 1.06, "lmp": 37.1489454489525, "pl": 0.0}, "47": {"matpower_bustype": "PQ", "area": 1.0, "vm": 1.0, "va": 7.473325719749185, "base_kv": 1.0, "zone": 1.0, "v_min": 0.94, "v_max": 1.06, "lmp": 37.0737690298887, "pl": 29.7}, "48": {"matpower_bustype": "PQ", "area": 1.0, "vm": 1.0, "va": 7.584824498836367, "base_kv": 1.0, "zone": 1.0, "v_min": 0.94, "v_max": 1.06, "lmp": 37.04801005100361, "pl": 0.0}, "49": {"matpower_bustype": "PQ", "area": 1.0, "vm": 1.0, "va": 7.374941322441265, "base_kv": 1.0, "zone": 1.0, "v_min": 0.94, "v_max": 1.06, "lmp": 37.074960749236986, "pl": 18.0}, "50": {"matpower_bustype": "PQ", "area": 1.0, "vm": 1.0, "va": 7.814553510226199, "base_kv": 1.0, "zone": 1.0, "v_min": 0.94, "v_max": 1.06, "lmp": 37.08617099215578, "pl": 21.0}, "51": {"matpower_bustype": "PQ", "area": 1.0, "vm": 1.0, "va": 5.923071944477154, "base_kv": 1.0, "zone": 1.0, "v_min": 0.94, "v_max": 1.06, "lmp": 37.10543859717244, "pl": 18.0}, "52": {"matpower_bustype": "PQ", "area": 1.0, "vm": 1.0, "va": 3.6674277381421256, "base_kv": 1.0, "zone": 1.0, "v_min": 0.94, "v_max": 1.06, "lmp": 34.96354655165873, "pl": 4.9}, "53": {"matpower_bustype": "PQ", "area": 1.0, "vm": 1.0, "va": 4.5290352337771, "base_kv": 1.0, "zone": 1.0, "v_min": 0.94, "v_max": 1.06, "lmp": 35.26586139626267, "pl": 20.0}, "54": {"matpower_bustype": "PQ", "area": 1.0, "vm": 1.0, "va": 3.901943371151726, "base_kv": 1.0, "zone": 1.0, "v_min": 0.94, "v_max": 1.06, "lmp": 35.97863623313375, "pl": 4.1}, "55": {"matpower_bustype": "PQ", "area": 1.0, "vm": 1.0, "va": 2.7576406539938016, "base_kv": 1.0, "zone": 1.0, "v_min": 0.94, "v_max": 1.06, "lmp": 36.67451339068245, "pl": 6.800000000000001}, "56": {"matpower_bustype": "PQ", "area": 1.0, "vm": 1.0, "va": 10.348395889816171, "base_kv": 1.0, "zone": 1.0, "v_min": 0.94, "v_max": 1.06, "lmp": 37.0358977478953, "pl": 7.6}, "57": {"matpower_bustype": "PQ", "area": 1.0, "vm": 1.0, "va": 10.954218948922312, "base_kv": 1.0, "zone": 1.0, "v_min": 0.94, "v_max": 1.06, "lmp": 37.0246109830339, "pl": 6.7}}, "load": {"load_1": {"in_service": true, "p_load": 55.00000000000001, "q_load": 17.0, "bus": "1"}, "load_2": {"in_service": true, "p_load": 3.0, "q_load": 88.0, "bus": "2"}, "load_3": {"in_service": true, "p_load": 41.0, "q_load": 21.0, "bus": "3"}, "load_5": {"in_service": true, "p_load": 13.0, "q_load": 4.0, "bus": "5"}, "load_6": {"in_service": true, "p_load": 75.0, "q_load": 2.0, "bus": "6"}, "load_8": {"in_service": true, "p_load": 150.0, "q_load": 22.0, "bus": "8"}, "load_9": {"in_service": true, "p_load": 121.0, "q_load": 26.0, "bus": "9"}, "load_10": {"in_service": true, "p_load": 5.0, "q_load": 2.0, "bus": "10"}, "load_12": {"in_service": true, "p_load": 377.0, "q_load": 24.0, "bus": "12"}, "load_13": {"in_service": true, "p_load": 18.0, "q_load": 2.3, "bus": "13"}, "load_14": {"in_service": true, "p_load": 10.5, "q_load": 5.3, "bus": "14"}, "load_15": {"in_service": true, "p_load": 22.0, "q_load": 5.0, "bus": "15"}, "load_16": {"in_service": true, "p_load": 43.0, "q_load": 3.0, "bus": "16"}, "load_17": {"in_service": true, "p_load": 42.0, "q_load": 8.0, "bus": "17"}, "load_18": {"in_service": true, "p_load": 27.200000000000003, "q_load": 9.8, "bus": "18"}, "load_19": {"in_service": true, "p_load": 3.3000000000000003, "q_load": 0.6, "bus": "19"}, "load_20": {"in_service": true, "p_load": 2.3, "q_load": 1.0, "bus": "20"}, "load_23": {"in_service": true, "p_load": 6.3, "q_load": 2.1, "bus": "23"}, "load_25": {"in_service": true, "p_load": 6.3, "q_load": 3.2, "bus": "25"}, "load_27": {"in_service": true, "p_load": 9.3, "q_load": 0.5, "bus": "27"}, "load_28": {"in_service": true, "p_load": 4.6, "q_load": 2.3, "bus": "28"}, "load_29": {"in_service": true, "p_load": 17.0, "q_load": 2.6, "bus": "29"}, "load_30": {"in_service": true, "p_load": 3.6000000000000005, "q_load": 1.8000000000000003, "bus": "30"}, "load_31": {"in_service": true, "p_load": 5.8, "q_load": 2.9, "bus": "31"}, "load_32": {"in_service": true, "p_load": 1.6, "q_load": 0.8, "bus": "32"}, "load_33": {"in_service": true, "p_load": 3.8, "q_load": 1.9, "bus": "33"}, "load_35": {"in_service": true, "p_load": 6.0, "q_load": 3.0, "bus": "35"}, "load_38": {"in_service": true, "p_load": 14.000000000000002, "q_load": 7.000000000000001, "bus": "38"}, "load_41": {"in_service": true, "p_load": 6.3, "q_load": 3.0, "bus": "41"}, "load_42": {"in_service": true, "p_load": 7.1, "q_load": 4.4, "bus": "42"}, "load_43": {"in_service": true, "p_load": 2.0, "q_load": 1.0, "bus": "43"}, "load_44": {"in_service": true, "p_load": 12.0, "q_load": 1.8000000000000003, "bus": "44"}, "load_47": {"in_service": true, "p_load": 29.7, "q_load": 11.6, "bus": "47"}, "load_49": {"in_service": true, "p_load": 18.0, "q_load": 8.5, "bus": "49"}, "load_50": {"in_service": true, "p_load": 21.0, "q_load": 10.5, "bus": "50"}, "load_51": {"in_service": true, "p_load": 18.0, "q_load": 5.3, "bus": "51"}, "load_52": {"in_service": true, "p_load": 4.9, "q_load": 2.2, "bus": "52"}, "load_53": {"in_service": true, "p_load": 20.0, "q_load": 10.0, "bus": "53"}, "load_54": {"in_service": true, "p_load": 4.1, "q_load": 1.4, "bus": "54"}, "load_55": {"in_service": true, "p_load": 6.800000000000001, "q_load": 3.4000000000000004, "bus": "55"}, "load_56": {"in_service": true, "p_load": 7.6, "q_load": 2.2, "bus": "56"}, "load_57": {"in_service": true, "p_load": 6.7, "q_load": 2.0, "bus": "57"}}, "shunt": {"shunt_18": {"shunt_type": "fixed", "bs": 10.0, "gs": 0.0, "bus": "18"}, "shunt_25": {"shunt_type": "fixed", "bs": 5.9, "gs": 0.0, "bus": "25"}, "shunt_53": {"shunt_type": "fixed", "bs": 6.3, "gs": 0.0, "bus": "53"}}, "generator": {"1": {"bus": "1", "pg": 245.00000000000003, "qg": 0.0, "vg": 1.0, "mbase": 100.0, "in_service": true, "p_min": 0.0, "p_max": 245.00000000000003, "q_min": -123.0, "q_max": 123.0, "generator_type": "thermal", "p_cost": {"data_type": "cost_curve", "cost_curve_type": "piecewise", "values": [[0.0, 0.0], [81.66666666666667, 1385.1176266666666], [163.33333333333334, 2770.2352533333333], [245.00000000000003, 4155.3528799999995]]}, "startup_cost": 0.0, "shutdown_cost": 0.0}, "2": {"bus": "2", "pg": 0.0, "qg": 16.5, "vg": 1.0, "mbase": 100.0, "in_service": true, "p_min": 0.0, "p_max": 0.0, "q_min": -17.0, "q_max": 50.0, "generator_type": "thermal", "p_cost": {"data_type": "cost_curve", "cost_curve_type": "piecewise", "values": [[0.0, 0.0]]}, "startup_cost": 0.0, "shutdown_cost": 0.0}, "3": {"bus": "3", "pg": 60.0, "qg": 10.0, "vg": 1.0, "mbase": 100.0, "in_service": true, "p_min": 0.0, "p_max": 60.0, "q_min": -10.0, "q_max": 30.0, "generator_type": "thermal", "p_cost": {"data_type": "cost_curve", "cost_curve_type": "piecewise", "values": [[0.0, 0.0], [20.0, 681.5111400000001], [40.0, 1363.0222800000001], [60.0, 2044.5334200000002]]}, "startup_cost": 0.0, "shutdown_cost": 0.0}, "4": {"bus": "6", "pg": 0.0, "qg": 8.5, "vg": 1.0, "mbase": 100.0, "in_service": true, "p_min": 0.0, "p_max": 0.0, "q_min": -8.0, "q_max": 25.0, "generator_type": "thermal", "p_cost": {"data_type": "cost_curve", "cost_curve_type": "piecewise", "values": [[0.0, 0.0]]}, "startup_cost": 0.0, "shutdown_cost": 0.0}, "5": {"bus": "8", "pg": 575.073968455402, "qg": 30.0, "vg": 1.0, "mbase": 100.0, "in_service": true, "p_min": 0.0, "p_max": 1159.0, "q_min": -140.0, "q_max": 200.0, "generator_type": "thermal", "p_cost": {"data_type": "cost_curve", "cost_curve_type": "piecewise", "values": [[0.0, 0.0], [386.3333333333333, 11760.387294333334], [772.6666666666666, 23520.774588666667], [1159.0, 35281.161883]]}, "startup_cost": 0.0, "shutdown_cost": 0.0}, "6": {"bus": "9", "pg": 0.0, "qg": 3.0, "vg": 1.0, "mbase": 100.0, "in_service": true, "p_min": 0.0, "p_max": 0.0, "q_min": -3.0, "q_max": 9.0, "generator_type": "thermal", "p_cost": {"data_type": "cost_curve", "cost_curve_type": "piecewise", "values": [[0.0, 0.0]]}, "startup_cost": 0.0, "shutdown_cost": 0.0}, "7": {"bus": "12", "pg": 370.726031544598, "qg": 2.5, "vg": 1.0, "mbase": 100.0, "in_service": true, "p_min": 0.0, "p_max": 519.0, "q_min": -150.0, "q_max": 155.0, "generator_type": "thermal", "p_cost": {"data_type": "cost_curve", "cost_curve_type": "piecewise", "values": [[0.0, 0.0], [173.0, 6433.693367000001], [346.0, 12867.386734000002], [519.0, 19301.080101000003]]}, "startup_cost": 0.0, "shutdown_cost": 0.0}}, "branch": {"1": {"from_bus": "1", "to_bus": "2", "resistance": 0.0083, "reactance": 0.028, "charging_susceptance": 0.129, "branch_type": "line", "rating_long_term": 1005.0000000000001, "rating_short_term": 1005.0000000000001, "rating_emergency": 1005.0000000000001, "in_service": true, "angle_diff_min": -30.0, "angle_diff_max": 30.0, "pf": 36.14061298916523, "qf": null, "pt": null, "qt": null}, "2": {"from_bus": "2", "to_bus": "3", "resistance": 0.0298, "reactance": 0.085, "charging_susceptance": 0.0818, "branch_type": "line", "rating_long_term": 326.0, "rating_short_term": 326.0, "rating_emergency": 326.0, "in_service": true, "angle_diff_min": -30.0, "angle_diff_max": 30.0, "pf": 33.14061298916523, "qf": null, "pt": null, "qt": null}, "3": {"from_bus": "3", "to_bus": "4", "resistance": 0.0112, "reactance": 0.0366, "charging_susceptance": 0.038, "branch_type": "line", "rating_long_term": 767.0, "rating_short_term": 767.0, "rating_emergency": 767.0, "in_service": true, "angle_diff_min": -30.0, "angle_diff_max": 30.0, "pf": 12.127443012095343, "qf": null, "pt": null, "qt": null}, "4": {"from_bus": "4", "to_bus": "5", "resistance": 0.0625, "reactance": 0.132, "charging_susceptance": 0.0258, "branch_type": "line", "rating_long_term": 200.99999999999997, "rating_short_term": 200.99999999999997, "rating_emergency": 200.99999999999997, "in_service": true, "angle_diff_min": -30.0, "angle_diff_max": 30.0, "pf": -5.908489091525807, "qf": null, "pt": null, "qt": null}, "5": {"from_bus": "4", "to_bus": "6", "resistance": 0.043, "reactance": 0.148, "charging_susceptance": 0.0348, "branch_type": "line", "rating_long_term": 191.0, "rating_short_term": 191.0, "rating_emergency": 191.0, "in_service": true, "angle_diff_min": -30.0, "angle_diff_max": 30.0, "pf": -13.459153451677103, "qf": null, "pt": null, "qt": null}, "6": {"from_bus": "6", "to_bus": "7", "resistance": 0.02, "reactance": 0.102, "charging_susceptance": 0.0276, "branch_type": "line", "rating_long_term": 283.0, "rating_short_term": 283.0, "rating_emergency": 283.0, "in_service": true, "angle_diff_min": -30.0, "angle_diff_max": 30.0, "pf": -39.345489773703605, "qf": null, "pt": null, "qt": null}, "7": {"from_bus": "6", "to_bus": "8", "resistance": 0.0339, "reactance": 0.173, "charging_susceptance": 0.047, "branch_type": "line", "rating_long_term": 167.0, "rating_short_term": 167.0, "rating_emergency": 167.0, "in_service": true, "angle_diff_min": -30.0, "angle_diff_max": 30.0, "pf": -68.02215276949936, "qf": null, "pt": null, "qt": null}, "8": {"from_bus": "8", "to_bus": "9", "resistance": 0.0099, "reactance": 0.0505, "charging_susceptance": 0.0548, "branch_type": "line", "rating_long_term": 570.0, "rating_short_term": 570.0, "rating_emergency": 570.0, "in_service": true, "angle_diff_min": -30.0, "angle_diff_max": 30.0, "pf": 248.1390000650372, "qf": null, "pt": null, "qt": null}, "9": {"from_bus": "9", "to_bus": "10", "resistance": 0.0369, "reactance": 0.1679, "charging_susceptance": 0.044, "branch_type": "line", "rating_long_term": 171.0, "rating_short_term": 171.0, "rating_emergency": 171.0, "in_service": true, "angle_diff_min": -30.0, "angle_diff_max": 30.0, "pf": 30.424169231132637, "qf": null, "pt": null, "qt": null}, "10": {"from_bus": "9", "to_bus": "11", "resistance": 0.0258, "reactance": 0.0848, "charging_susceptance": 0.0218, "branch_type": "line", "rating_long_term": 331.0, "rating_short_term": 331.0, "rating_emergency": 331.0, "in_service": true, "angle_diff_min": -30.0, "angle_diff_max": 30.0, "pf": 39.39283962105281, "qf": null, "pt": null, "qt": null}, "11": {"from_bus": "9", "to_bus": "12", "resistance": 0.0648, "reactance": 0.295, "charging_susceptance": 0.0772, "branch_type": "line", "rating_long_term": 98.0, "rating_short_term": 98.0, "rating_emergency": 98.0, "in_service": true, "angle_diff_min": -30.0, "angle_diff_max": 30.0, "pf": 14.07263211982192, "qf": null, "pt": null, "qt": null}, "12": {"from_bus": "9", "to_bus": "13", "resistance": 0.0481, "reactance": 0.158, "charging_susceptance": 0.0406, "branch_type": "line", "rating_long_term": 178.0, "rating_short_term": 178.0, "rating_emergency": 178.0, "in_service": true, "angle_diff_min": -30.0, "angle_diff_max": 30.0, "pf": 27.63176525023813, "qf": null, "pt": null, "qt": null}, "13": {"from_bus": "13", "to_bus": "14", "resistance": 0.0132, "reactance": 0.0434, "charging_susceptance": 0.011, "branch_type": "line", "rating_long_term": 647.0, "rating_short_term": 647.0, "rating_emergency": 647.0, "in_service": true, "angle_diff_min": -30.0, "angle_diff_max": 30.0, "pf": 12.187337922607709, "qf": null, "pt": null, "qt": null}, "14": {"from_bus": "13", "to_bus": "15", "resistance": 0.0269, "reactance": 0.0869, "charging_susceptance": 0.023, "branch_type": "line", "rating_long_term": 323.0, "rating_short_term": 323.0, "rating_emergency": 323.0, "in_service": true, "angle_diff_min": -30.0, "angle_diff_max": 30.0, "pf": -16.803425527139108, "qf": null, "pt": null, "qt": null}, "15": {"from_bus": "1", "to_bus": "15", "resistance": 0.0178, "reactance": 0.091, "charging_susceptance": 0.0988, "branch_type": "line", "rating_long_term": 317.0, "rating_short_term": 317.0, "rating_emergency": 317.0, "in_service": true, "angle_diff_min": -30.0, "angle_diff_max": 30.0, "pf": 65.38007996220193, "qf": null, "pt": null, "qt": null}, "16": {"from_bus": "1", "to_bus": "16", "resistance": 0.0454, "reactance": 0.206, "charging_susceptance": 0.0546, "branch_type": "line", "rating_long_term": 140.0, "rating_short_term": 140.0, "rating_emergency": 140.0, "in_service": true, "angle_diff_min": -30.0, "angle_diff_max": 30.0, "pf": 37.213061331982615, "qf": null, "pt": null, "qt": null}, "17": {"from_bus": "1", "to_bus": "17", "resistance": 0.0238, "reactance": 0.108, "charging_susceptance": 0.0286, "branch_type": "line", "rating_long_term": 266.0, "rating_short_term": 266.0, "rating_emergency": 266.0, "in_service": true, "angle_diff_min": -30.0, "angle_diff_max": 30.0, "pf": 51.2662457166502, "qf": null, "pt": null, "qt": null}, "18": {"from_bus": "3", "to_bus": "15", "resistance": 0.0162, "reactance": 0.053, "charging_susceptance": 0.0544, "branch_type": "line", "rating_long_term": 530.0, "rating_short_term": 530.0, "rating_emergency": 530.0, "in_service": true, "angle_diff_min": -30.0, "angle_diff_max": 30.0, "pf": 40.01316997706989, "qf": null, "pt": null, "qt": null}, "19": {"from_bus": "4", "to_bus": "18", "resistance": 0.0, "reactance": 0.555, "charging_susceptance": 0.0, "transformer_tap_ratio": 0.97, "transformer_phase_shift": 0.0, "branch_type": "transformer", "rating_long_term": 53.0, "rating_short_term": 53.0, "rating_emergency": 53.0, "in_service": true, "angle_diff_min": -30.0, "angle_diff_max": 30.0, "pf": 13.8127869509799, "qf": null, "pt": null, "qt": null}, "20": {"from_bus": "4", "to_bus": "18", "resistance": 0.0, "reactance": 0.43, "charging_susceptance": 0.0, "transformer_tap_ratio": 0.978, "transformer_phase_shift": 0.0, "branch_type": "transformer", "rating_long_term": 69.0, "rating_short_term": 69.0, "rating_emergency": 69.0, "in_service": true, "angle_diff_min": -30.0, "angle_diff_max": 30.0, "pf": 17.682298604318326, "qf": null, "pt": null, "qt": null}, "21": {"from_bus": "5", "to_bus": "6", "resistance": 0.0302, "reactance": 0.0641, "charging_susceptance": 0.0124, "branch_type": "line", "rating_long_term": 413.99999999999994, "rating_short_term": 413.99999999999994, "rating_emergency": 413.99999999999994, "in_service": true, "angle_diff_min": -30.0, "angle_diff_max": 30.0, "pf": -18.90848909152581, "qf": null, "pt": null, "qt": null}, "22": {"from_bus": "7", "to_bus": "8", "resistance": 0.0139, "reactance": 0.0712, "charging_susceptance": 0.0194, "branch_type": "line", "rating_long_term": 405.0, "rating_short_term": 405.0, "rating_emergency": 405.0, "in_service": true, "angle_diff_min": -30.0, "angle_diff_max": 30.0, "pf": -108.91281562086546, "qf": null, "pt": null, "qt": null}, "23": {"from_bus": "10", "to_bus": "12", "resistance": 0.0277, "reactance": 0.1262, "charging_susceptance": 0.0328, "branch_type": "line", "rating_long_term": 227.99999999999997, "rating_short_term": 227.99999999999997, "rating_emergency": 227.99999999999997, "in_service": true, "angle_diff_min": -30.0, "angle_diff_max": 30.0, "pf": -7.581549433912074, "qf": null, "pt": null, "qt": null}, "24": {"from_bus": "11", "to_bus": "13", "resistance": 0.0223, "reactance": 0.0732, "charging_susceptance": 0.0188, "branch_type": "line", "rating_long_term": 384.0, "rating_short_term": 384.0, "rating_emergency": 384.0, "in_service": true, "angle_diff_min": -30.0, "angle_diff_max": 30.0, "pf": 14.006914066562098, "qf": null, "pt": null, "qt": null}, "25": {"from_bus": "12", "to_bus": "13", "resistance": 0.0178, "reactance": 0.058, "charging_susceptance": 0.0604, "branch_type": "line", "rating_long_term": 484.0, "rating_short_term": 484.0, "rating_emergency": 484.0, "in_service": true, "angle_diff_min": -30.0, "angle_diff_max": 30.0, "pf": 3.6964212791406514, "qf": null, "pt": null, "qt": null}, "26": {"from_bus": "12", "to_bus": "16", "resistance": 0.018, "reactance": 0.0813, "charging_susceptance": 0.0216, "branch_type": "line", "rating_long_term": 353.0, "rating_short_term": 353.0, "rating_emergency": 353.0, "in_service": true, "angle_diff_min": -30.0, "angle_diff_max": 30.0, "pf": 5.786938668017385, "qf": null, "pt": null, "qt": null}, "27": {"from_bus": "12", "to_bus": "17", "resistance": 0.0397, "reactance": 0.179, "charging_susceptance": 0.0476, "branch_type": "line", "rating_long_term": 160.0, "rating_short_term": 160.0, "rating_emergency": 160.0, "in_service": true, "angle_diff_min": -30.0, "angle_diff_max": 30.0, "pf": -9.266245716650195, "qf": null, "pt": null, "qt": null}, "28": {"from_bus": "14", "to_bus": "15", "resistance": 0.0171, "reactance": 0.0547, "charging_susceptance": 0.0148, "branch_type": "line", "rating_long_term": 512.0, "rating_short_term": 512.0, "rating_emergency": 512.0, "in_service": true, "angle_diff_min": -30.0, "angle_diff_max": 30.0, "pf": -36.36468270840152, "qf": null, "pt": null, "qt": null}, "29": {"from_bus": "18", "to_bus": "19", "resistance": 0.461, "reactance": 0.685, "charging_susceptance": 0.0, "branch_type": "line", "rating_long_term": 36.0, "rating_short_term": 36.0, "rating_emergency": 36.0, "in_service": true, "angle_diff_min": -30.0, "angle_diff_max": 30.0, "pf": 4.295085555298238, "qf": null, "pt": null, "qt": null}, "30": {"from_bus": "19", "to_bus": "20", "resistance": 0.283, "reactance": 0.434, "charging_susceptance": 0.0, "branch_type": "line", "rating_long_term": 56.99999999999999, "rating_short_term": 56.99999999999999, "rating_emergency": 56.99999999999999, "in_service": true, "angle_diff_min": -30.0, "angle_diff_max": 30.0, "pf": 0.9950855552982354, "qf": null, "pt": null, "qt": null}, "31": {"from_bus": "21", "to_bus": "20", "resistance": 0.0, "reactance": 0.7767, "charging_susceptance": 0.0, "transformer_tap_ratio": 1.043, "transformer_phase_shift": 0.0, "branch_type": "transformer", "rating_long_term": 38.0, "rating_short_term": 38.0, "rating_emergency": 38.0, "in_service": true, "angle_diff_min": -30.0, "angle_diff_max": 30.0, "pf": 1.3049144447017733, "qf": null, "pt": null, "qt": null}, "32": {"from_bus": "21", "to_bus": "22", "resistance": 0.0736, "reactance": 0.117, "charging_susceptance": 0.0, "branch_type": "line", "rating_long_term": 213.0, "rating_short_term": 213.0, "rating_emergency": 213.0, "in_service": true, "angle_diff_min": -30.0, "angle_diff_max": 30.0, "pf": -1.304914444701757, "qf": null, "pt": null, "qt": null}, "33": {"from_bus": "22", "to_bus": "23", "resistance": 0.0099, "reactance": 0.0152, "charging_susceptance": 0.0, "branch_type": "line", "rating_long_term": 1617.0000000000002, "rating_short_term": 1617.0000000000002, "rating_emergency": 1617.0000000000002, "in_service": true, "angle_diff_min": -30.0, "angle_diff_max": 30.0, "pf": 1.9367746807064194, "qf": null, "pt": null, "qt": null}, "34": {"from_bus": "23", "to_bus": "24", "resistance": 0.166, "reactance": 0.256, "charging_susceptance": 0.0084, "branch_type": "line", "rating_long_term": 97.0, "rating_short_term": 97.0, "rating_emergency": 97.0, "in_service": true, "angle_diff_min": -30.0, "angle_diff_max": 30.0, "pf": -4.363225319293595, "qf": null, "pt": null, "qt": null}, "35": {"from_bus": "24", "to_bus": "25", "resistance": 0.0, "reactance": 1.182, "charging_susceptance": 0.0, "transformer_tap_ratio": 1.0, "transformer_phase_shift": 0.0, "branch_type": "transformer", "rating_long_term": 25.0, "rating_short_term": 25.0, "rating_emergency": 25.0, "in_service": true, "angle_diff_min": -30.0, "angle_diff_max": 30.0, "pf": 7.2013615571773295, "qf": null, "pt": null, "qt": null}, "36": {"from_bus": "24", "to_bus": "25", "resistance": 0.0, "reactance": 1.23, "charging_susceptance": 0.0, "transformer_tap_ratio": 1.0, "transformer_phase_shift": 0.0, "branch_type": "transformer", "rating_long_term": 24.0, "rating_short_term": 24.0, "rating_emergency": 24.0, "in_service": true, "angle_diff_min": -30.0, "angle_diff_max": 30.0, "pf": 6.920332813482603, "qf": null, "pt": null, "qt": null}, "37": {"from_bus": "24", "to_bus": "26", "resistance": 0.0, "reactance": 0.0473, "charging_susceptance": 0.0, "transformer_tap_ratio": 1.043, "transformer_phase_shift": 0.0, "branch_type": "transformer", "rating_long_term": 621.0, "rating_short_term": 621.0, "rating_emergency": 621.0, "in_service": true, "angle_diff_min": -30.0, "angle_diff_max": 30.0, "pf": -18.484919689953475, "qf": null, "pt": null, "qt": null}, "38": {"from_bus": "26", "to_bus": "27", "resistance": 0.165, "reactance": 0.254, "charging_susceptance": 0.0, "branch_type": "line", "rating_long_term": 97.0, "rating_short_term": 97.0, "rating_emergency": 97.0, "in_service": true, "angle_diff_min": -30.0, "angle_diff_max": 30.0, "pf": -18.484919689953525, "qf": null, "pt": null, "qt": null}, "39": {"from_bus": "27", "to_bus": "28", "resistance": 0.0618, "reactance": 0.0954, "charging_susceptance": 0.0, "branch_type": "line", "rating_long_term": 259.0, "rating_short_term": 259.0, "rating_emergency": 259.0, "in_service": true, "angle_diff_min": -30.0, "angle_diff_max": 30.0, "pf": -27.78491968995352, "qf": null, "pt": null, "qt": null}, "40": {"from_bus": "28", "to_bus": "29", "resistance": 0.0418, "reactance": 0.0587, "charging_susceptance": 0.0, "branch_type": "line", "rating_long_term": 408.0, "rating_short_term": 408.0, "rating_emergency": 408.0, "in_service": true, "angle_diff_min": -30.0, "angle_diff_max": 30.0, "pf": -32.38491968995353, "qf": null, "pt": null, "qt": null}, "41": {"from_bus": "7", "to_bus": "29", "resistance": 0.0, "reactance": 0.0648, "charging_susceptance": 0.0, "transformer_tap_ratio": 0.967, "transformer_phase_shift": 0.0, "branch_type": "transformer", "rating_long_term": 453.0, "rating_short_term": 453.0, "rating_emergency": 453.0, "in_service": true, "angle_diff_min": -30.0, "angle_diff_max": 30.0, "pf": 69.56732584716183, "qf": null, "pt": null, "qt": null}, "42": {"from_bus": "25", "to_bus": "30", "resistance": 0.135, "reactance": 0.202, "charging_susceptance": 0.0, "branch_type": "line", "rating_long_term": 121.0, "rating_short_term": 121.0, "rating_emergency": 121.0, "in_service": true, "angle_diff_min": -30.0, "angle_diff_max": 30.0, "pf": 7.82169437065995, "qf": null, "pt": null, "qt": null}, "43": {"from_bus": "30", "to_bus": "31", "resistance": 0.326, "reactance": 0.497, "charging_susceptance": 0.0, "branch_type": "line", "rating_long_term": 50.0, "rating_short_term": 50.0, "rating_emergency": 50.0, "in_service": true, "angle_diff_min": -30.0, "angle_diff_max": 30.0, "pf": 4.221694370659933, "qf": null, "pt": null, "qt": null}, "44": {"from_bus": "31", "to_bus": "32", "resistance": 0.507, "reactance": 0.755, "charging_susceptance": 0.0, "branch_type": "line", "rating_long_term": 33.0, "rating_short_term": 33.0, "rating_emergency": 33.0, "in_service": true, "angle_diff_min": -30.0, "angle_diff_max": 30.0, "pf": -1.5783056293400715, "qf": null, "pt": null, "qt": null}, "45": {"from_bus": "32", "to_bus": "33", "resistance": 0.0392, "reactance": 0.036, "charging_susceptance": 0.0, "branch_type": "line", "rating_long_term": 552.0, "rating_short_term": 552.0, "rating_emergency": 552.0, "in_service": true, "angle_diff_min": -30.0, "angle_diff_max": 30.0, "pf": 3.800000000000032, "qf": null, "pt": null, "qt": null}, "46": {"from_bus": "34", "to_bus": "32", "resistance": 0.0, "reactance": 0.953, "charging_susceptance": 0.0, "transformer_tap_ratio": 0.975, "transformer_phase_shift": 0.0, "branch_type": "transformer", "rating_long_term": 31.0, "rating_short_term": 31.0, "rating_emergency": 31.0, "in_service": true, "angle_diff_min": -30.0, "angle_diff_max": 30.0, "pf": 6.978305629340031, "qf": null, "pt": null, "qt": null}, "47": {"from_bus": "34", "to_bus": "35", "resistance": 0.052, "reactance": 0.078, "charging_susceptance": 0.0032, "branch_type": "line", "rating_long_term": 313.0, "rating_short_term": 313.0, "rating_emergency": 313.0, "in_service": true, "angle_diff_min": -30.0, "angle_diff_max": 30.0, "pf": -6.978305629340036, "qf": null, "pt": null, "qt": null}, "48": {"from_bus": "35", "to_bus": "36", "resistance": 0.043, "reactance": 0.0537, "charging_susceptance": 0.0016, "branch_type": "line", "rating_long_term": 426.99999999999994, "rating_short_term": 426.99999999999994, "rating_emergency": 426.99999999999994, "in_service": true, "angle_diff_min": -30.0, "angle_diff_max": 30.0, "pf": -12.978305629340062, "qf": null, "pt": null, "qt": null}, "49": {"from_bus": "36", "to_bus": "37", "resistance": 0.029, "reactance": 0.0366, "charging_susceptance": 0.0, "branch_type": "line", "rating_long_term": 629.0, "rating_short_term": 629.0, "rating_emergency": 629.0, "in_service": true, "angle_diff_min": -30.0, "angle_diff_max": 30.0, "pf": -14.659152023274777, "qf": null, "pt": null, "qt": null}, "50": {"from_bus": "37", "to_bus": "38", "resistance": 0.0651, "reactance": 0.1009, "charging_susceptance": 0.002, "branch_type": "line", "rating_long_term": 245.00000000000003, "rating_short_term": 245.00000000000003, "rating_emergency": 245.00000000000003, "in_service": true, "angle_diff_min": -30.0, "angle_diff_max": 30.0, "pf": -17.292380074849333, "qf": null, "pt": null, "qt": null}, "51": {"from_bus": "37", "to_bus": "39", "resistance": 0.0239, "reactance": 0.0379, "charging_susceptance": 0.0, "branch_type": "line", "rating_long_term": 655.0, "rating_short_term": 655.0, "rating_emergency": 655.0, "in_service": true, "angle_diff_min": -30.0, "angle_diff_max": 30.0, "pf": 2.6332280515743864, "qf": null, "pt": null, "qt": null}, "52": {"from_bus": "36", "to_bus": "40", "resistance": 0.03, "reactance": 0.0466, "charging_susceptance": 0.0, "branch_type": "line", "rating_long_term": 530.0, "rating_short_term": 530.0, "rating_emergency": 530.0, "in_service": true, "angle_diff_min": -30.0, "angle_diff_max": 30.0, "pf": 1.6808463939348341, "qf": null, "pt": null, "qt": null}, "53": {"from_bus": "22", "to_bus": "38", "resistance": 0.0192, "reactance": 0.0295, "charging_susceptance": 0.0, "branch_type": "line", "rating_long_term": 834.0, "rating_short_term": 834.0, "rating_emergency": 834.0, "in_service": true, "angle_diff_min": -30.0, "angle_diff_max": 30.0, "pf": -3.241689125408034, "qf": null, "pt": null, "qt": null}, "54": {"from_bus": "11", "to_bus": "41", "resistance": 0.0, "reactance": 0.749, "charging_susceptance": 0.0, "transformer_tap_ratio": 0.955, "transformer_phase_shift": 0.0, "branch_type": "transformer", "rating_long_term": 40.0, "rating_short_term": 40.0, "rating_emergency": 40.0, "in_service": true, "angle_diff_min": -30.0, "angle_diff_max": 30.0, "pf": 10.484530183774071, "qf": null, "pt": null, "qt": null}, "55": {"from_bus": "41", "to_bus": "42", "resistance": 0.207, "reactance": 0.352, "charging_susceptance": 0.0, "branch_type": "line", "rating_long_term": 72.0, "rating_short_term": 72.0, "rating_emergency": 72.0, "in_service": true, "angle_diff_min": -30.0, "angle_diff_max": 30.0, "pf": 9.476950700729404, "qf": null, "pt": null, "qt": null}, "56": {"from_bus": "41", "to_bus": "43", "resistance": 0.0, "reactance": 0.412, "charging_susceptance": 0.0, "branch_type": "line", "rating_long_term": 72.0, "rating_short_term": 72.0, "rating_emergency": 72.0, "in_service": true, "angle_diff_min": -30.0, "angle_diff_max": 30.0, "pf": -12.901395370716637, "qf": null, "pt": null, "qt": null}, "57": {"from_bus": "38", "to_bus": "44", "resistance": 0.0289, "reactance": 0.0585, "charging_susceptance": 0.002, "branch_type": "line", "rating_long_term": 450.0, "rating_short_term": 450.0, "rating_emergency": 450.0, "in_service": true, "angle_diff_min": -30.0, "angle_diff_max": 30.0, "pf": -18.225141703731037, "qf": null, "pt": null, "qt": null}, "58": {"from_bus": "15", "to_bus": "45", "resistance": 0.0, "reactance": 0.1042, "charging_susceptance": 0.0, "transformer_tap_ratio": 0.955, "transformer_phase_shift": 0.0, "branch_type": "transformer", "rating_long_term": 282.0, "rating_short_term": 282.0, "rating_emergency": 282.0, "in_service": true, "angle_diff_min": -30.0, "angle_diff_max": 30.0, "pf": 30.225141703731023, "qf": null, "pt": null, "qt": null}, "59": {"from_bus": "14", "to_bus": "46", "resistance": 0.0, "reactance": 0.0735, "charging_susceptance": 0.0, "transformer_tap_ratio": 0.9, "transformer_phase_shift": 0.0, "branch_type": "transformer", "rating_long_term": 400.0, "rating_short_term": 400.0, "rating_emergency": 400.0, "in_service": true, "angle_diff_min": -30.0, "angle_diff_max": 30.0, "pf": 38.05202063100924, "qf": null, "pt": null, "qt": null}, "60": {"from_bus": "46", "to_bus": "47", "resistance": 0.023, "reactance": 0.068, "charging_susceptance": 0.0032, "branch_type": "line", "rating_long_term": 409.0, "rating_short_term": 409.0, "rating_emergency": 409.0, "in_service": true, "angle_diff_min": -30.0, "angle_diff_max": 30.0, "pf": 38.05202063100923, "qf": null, "pt": null, "qt": null}, "61": {"from_bus": "47", "to_bus": "48", "resistance": 0.0182, "reactance": 0.0233, "charging_susceptance": 0.0, "branch_type": "line", "rating_long_term": 993.0, "rating_short_term": 993.0, "rating_emergency": 993.0, "in_service": true, "angle_diff_min": -30.0, "angle_diff_max": 30.0, "pf": 8.35202063100912, "qf": null, "pt": null, "qt": null}, "62": {"from_bus": "48", "to_bus": "49", "resistance": 0.0834, "reactance": 0.129, "charging_susceptance": 0.0048, "branch_type": "line", "rating_long_term": 191.0, "rating_short_term": 191.0, "rating_emergency": 191.0, "in_service": true, "angle_diff_min": -30.0, "angle_diff_max": 30.0, "pf": -2.8396530795647807, "qf": null, "pt": null, "qt": null}, "63": {"from_bus": "49", "to_bus": "50", "resistance": 0.0801, "reactance": 0.128, "charging_susceptance": 0.0, "branch_type": "line", "rating_long_term": 195.0, "rating_short_term": 195.0, "rating_emergency": 195.0, "in_service": true, "angle_diff_min": -30.0, "angle_diff_max": 30.0, "pf": 5.994281334955236, "qf": null, "pt": null, "qt": null}, "64": {"from_bus": "50", "to_bus": "51", "resistance": 0.1386, "reactance": 0.22, "charging_susceptance": 0.0, "branch_type": "line", "rating_long_term": 112.99999999999999, "rating_short_term": 112.99999999999999, "rating_emergency": 112.99999999999999, "in_service": true, "angle_diff_min": -30.0, "angle_diff_max": 30.0, "pf": -15.005718665044743, "qf": null, "pt": null, "qt": null}, "65": {"from_bus": "10", "to_bus": "51", "resistance": 0.0, "reactance": 0.0712, "charging_susceptance": 0.0, "transformer_tap_ratio": 0.93, "transformer_phase_shift": 0.0, "branch_type": "transformer", "rating_long_term": 412.0, "rating_short_term": 412.0, "rating_emergency": 412.0, "in_service": true, "angle_diff_min": -30.0, "angle_diff_max": 30.0, "pf": 33.005718665044725, "qf": null, "pt": null, "qt": null}, "66": {"from_bus": "13", "to_bus": "49", "resistance": 0.0, "reactance": 0.191, "charging_susceptance": 0.0, "transformer_tap_ratio": 0.895, "transformer_phase_shift": 0.0, "branch_type": "transformer", "rating_long_term": 154.0, "rating_short_term": 154.0, "rating_emergency": 154.0, "in_service": true, "angle_diff_min": -30.0, "angle_diff_max": 30.0, "pf": 31.951188200472203, "qf": null, "pt": null, "qt": null}, "67": {"from_bus": "29", "to_bus": "52", "resistance": 0.1442, "reactance": 0.187, "charging_susceptance": 0.0, "branch_type": "line", "rating_long_term": 125.0, "rating_short_term": 125.0, "rating_emergency": 125.0, "in_service": true, "angle_diff_min": -30.0, "angle_diff_max": 30.0, "pf": 20.18240615720831, "qf": null, "pt": null, "qt": null}, "68": {"from_bus": "52", "to_bus": "53", "resistance": 0.0762, "reactance": 0.0984, "charging_susceptance": 0.0, "branch_type": "line", "rating_long_term": 236.0, "rating_short_term": 236.0, "rating_emergency": 236.0, "in_service": true, "angle_diff_min": -30.0, "angle_diff_max": 30.0, "pf": 15.282406157208303, "qf": null, "pt": null, "qt": null}, "69": {"from_bus": "53", "to_bus": "54", "resistance": 0.1878, "reactance": 0.232, "charging_susceptance": 0.0, "branch_type": "line", "rating_long_term": 99.0, "rating_short_term": 99.0, "rating_emergency": 99.0, "in_service": true, "angle_diff_min": -30.0, "angle_diff_max": 30.0, "pf": -4.7175938427917, "qf": null, "pt": null, "qt": null}, "70": {"from_bus": "54", "to_bus": "55", "resistance": 0.1732, "reactance": 0.2265, "charging_susceptance": 0.0, "branch_type": "line", "rating_long_term": 103.0, "rating_short_term": 103.0, "rating_emergency": 103.0, "in_service": true, "angle_diff_min": -30.0, "angle_diff_max": 30.0, "pf": -8.817593842791691, "qf": null, "pt": null, "qt": null}, "71": {"from_bus": "11", "to_bus": "43", "resistance": 0.0, "reactance": 0.153, "charging_susceptance": 0.0, "transformer_tap_ratio": 0.958, "transformer_phase_shift": 0.0, "branch_type": "transformer", "rating_long_term": 192.0, "rating_short_term": 192.0, "rating_emergency": 192.0, "in_service": true, "angle_diff_min": -30.0, "angle_diff_max": 30.0, "pf": 14.90139537071663, "qf": null, "pt": null, "qt": null}, "72": {"from_bus": "44", "to_bus": "45", "resistance": 0.0624, "reactance": 0.1242, "charging_susceptance": 0.004, "branch_type": "line", "rating_long_term": 212.0, "rating_short_term": 212.0, "rating_emergency": 212.0, "in_service": true, "angle_diff_min": -30.0, "angle_diff_max": 30.0, "pf": -30.225141703731012, "qf": null, "pt": null, "qt": null}, "73": {"from_bus": "40", "to_bus": "56", "resistance": 0.0, "reactance": 1.195, "charging_susceptance": 0.0, "transformer_tap_ratio": 0.958, "transformer_phase_shift": 0.0, "branch_type": "transformer", "rating_long_term": 25.0, "rating_short_term": 25.0, "rating_emergency": 25.0, "in_service": true, "angle_diff_min": -30.0, "angle_diff_max": 30.0, "pf": 1.6808463939348224, "qf": null, "pt": null, "qt": null}, "74": {"from_bus": "56", "to_bus": "41", "resistance": 0.553, "reactance": 0.549, "charging_susceptance": 0.0, "branch_type": "line", "rating_long_term": 38.0, "rating_short_term": 38.0, "rating_emergency": 38.0, "in_service": true, "angle_diff_min": -30.0, "angle_diff_max": 30.0, "pf": -7.608974853761313, "qf": null, "pt": null, "qt": null}, "75": {"from_bus": "56", "to_bus": "42", "resistance": 0.2125, "reactance": 0.354, "charging_susceptance": 0.0, "branch_type": "line", "rating_long_term": 72.0, "rating_short_term": 72.0, "rating_emergency": 72.0, "in_service": true, "angle_diff_min": -30.0, "angle_diff_max": 30.0, "pf": -2.3769507007294113, "qf": null, "pt": null, "qt": null}, "76": {"from_bus": "39", "to_bus": "57", "resistance": 0.0, "reactance": 1.355, "charging_susceptance": 0.0, "transformer_tap_ratio": 0.98, "transformer_phase_shift": 0.0, "branch_type": "transformer", "rating_long_term": 22.0, "rating_short_term": 22.0, "rating_emergency": 22.0, "in_service": true, "angle_diff_min": -30.0, "angle_diff_max": 30.0, "pf": 2.63322805157445, "qf": null, "pt": null, "qt": null}, "77": {"from_bus": "57", "to_bus": "56", "resistance": 0.174, "reactance": 0.26, "charging_susceptance": 0.0, "branch_type": "line", "rating_long_term": 94.0, "rating_short_term": 94.0, "rating_emergency": 94.0, "in_service": true, "angle_diff_min": -30.0, "angle_diff_max": 30.0, "pf": -4.066771948425531, "qf": null, "pt": null, "qt": null}, "78": {"from_bus": "38", "to_bus": "49", "resistance": 0.115, "reactance": 0.177, "charging_susceptance": 0.003, "branch_type": "line", "rating_long_term": 139.0, "rating_short_term": 139.0, "rating_emergency": 139.0, "in_service": true, "angle_diff_min": -30.0, "angle_diff_max": 30.0, "pf": -5.117253785952132, "qf": null, "pt": null, "qt": null}, "79": {"from_bus": "38", "to_bus": "48", "resistance": 0.0312, "reactance": 0.0482, "charging_susceptance": 0.0, "branch_type": "line", "rating_long_term": 511.00000000000006, "rating_short_term": 511.00000000000006, "rating_emergency": 511.00000000000006, "in_service": true, "angle_diff_min": -30.0, "angle_diff_max": 30.0, "pf": -11.19167371057409, "qf": null, "pt": null, "qt": null}, "80": {"from_bus": "9", "to_bus": "55", "resistance": 0.0, "reactance": 0.1205, "charging_susceptance": 0.0, "transformer_tap_ratio": 0.94, "transformer_phase_shift": 0.0, "branch_type": "transformer", "rating_long_term": 244.0, "rating_short_term": 244.0, "rating_emergency": 244.0, "in_service": true, "angle_diff_min": -30.0, "angle_diff_max": 30.0, "pf": 15.617593842791708, "qf": null, "pt": null, "qt": null}}, "contingency": {"1": {"branch_contingency": "1"}, "2": {"branch_contingency": "2"}, "3": {"branch_contingency": "3"}, "4": {"branch_contingency": "4"}, "5": {"branch_contingency": "5"}, "6": {"branch_contingency": "6"}, "7": {"branch_contingency": "7"}, "8": {"branch_contingency": "8", "monitored_branches": {"7": {"pf": -167.0}, "22": {"pf": -258.07396845540165}, "5": {"pf": -106.19872724971013}}}, "9": {"branch_contingency": "9"}, "10": {"branch_contingency": "10"}, "11": {"branch_contingency": "11"}, "12": {"branch_contingency": "12"}, "13": {"branch_contingency": "13"}, "14": {"branch_contingency": "14"}, "15": {"branch_contingency": "15"}, "16": {"branch_contingency": "16"}, "17": {"branch_contingency": "17"}, "18": {"branch_contingency": "18"}, "19": {"branch_contingency": "19"}, "20": {"branch_contingency": "20"}, "21": {"branch_contingency": "21"}, "22": {"branch_contingency": "22", "monitored_branches": {"7": {"pf": -122.9819443689488}, "8": {"pf": 302.09202408645297}}}, "23": {"branch_contingency": "23"}, "24": {"branch_contingency": "24"}, "25": {"branch_contingency": "25"}, "26": {"branch_contingency": "26"}, "27": {"branch_contingency": "27"}, "28": {"branch_contingency": "28"}, "29": {"branch_contingency": "29"}, "30": {"branch_contingency": "30"}, "31": {"branch_contingency": "31"}, "32": {"branch_contingency": "32"}, "33": {"branch_contingency": "33"}, "34": {"branch_contingency": "34"}, "35": {"branch_contingency": "35"}, "36": {"branch_contingency": "36"}, "37": {"branch_contingency": "37"}, "38": {"branch_contingency": "38"}, "39": {"branch_contingency": "39"}, "40": {"branch_contingency": "40"}, "41": {"branch_contingency": "41"}, "42": {"branch_contingency": "42"}, "43": {"branch_contingency": "43"}, "44": {"branch_contingency": "44"}, "46": {"branch_contingency": "46"}, "47": {"branch_contingency": "47"}, "48": {"branch_contingency": "48"}, "49": {"branch_contingency": "49"}, "50": {"branch_contingency": "50"}, "51": {"branch_contingency": "51"}, "52": {"branch_contingency": "52"}, "53": {"branch_contingency": "53"}, "54": {"branch_contingency": "54"}, "55": {"branch_contingency": "55"}, "56": {"branch_contingency": "56"}, "57": {"branch_contingency": "57"}, "58": {"branch_contingency": "58"}, "59": {"branch_contingency": "59"}, "60": {"branch_contingency": "60"}, "61": {"branch_contingency": "61"}, "62": {"branch_contingency": "62"}, "63": {"branch_contingency": "63"}, "64": {"branch_contingency": "64"}, "65": {"branch_contingency": "65"}, "66": {"branch_contingency": "66"}, "67": {"branch_contingency": "67"}, "68": {"branch_contingency": "68"}, "69": {"branch_contingency": "69"}, "70": {"branch_contingency": "70"}, "71": {"branch_contingency": "71"}, "72": {"branch_contingency": "72"}, "73": {"branch_contingency": "73"}, "74": {"branch_contingency": "74"}, "75": {"branch_contingency": "75"}, "76": {"branch_contingency": "76"}, "77": {"branch_contingency": "77"}, "78": {"branch_contingency": "78"}, "79": {"branch_contingency": "79"}, "80": {"branch_contingency": "80"}}}, "system": {"model_name": "pglib_opf_case57_ieee", "mpc_version": "'2'", "baseMVA": 100.0, "reference_bus": "1", "reference_bus_angle": 0.0, "load_mismatch_cost": 1000000.0, "total_cost": 37492.65685335312, "p_balance_violation": 0.0}}